THERMO
  300.   1000.   5000.
H2O                     H   2O   1          G    300.00   5000.00 1000.00      1
 .267214569E+01 .305629290E-02-.873026070E-06 .120099600E-09-.639161790E-14    2
-.298992115E+05 .686281125E+01 .338684200E+01 .347498200E-02-.635469590E-05    3
 .696858040E-08-.250658800E-11-.302081100E+05 .259023200E+01                   4
AR                      AR  1               G    300.00   5000.00 1000.00      1
 .312500009E+01-.140625050E-02 .937500490E-06-.156250080E-09 .000000000E+00    2
-.940687583E+03 .103823694E+01 .250000000E+01 .000000000E+00 .000000000E+00    3
 .000000000E+00 .000000000E+00-.745375100E+03 .436600100E+01                   4
N2                      N   2               G    300.00   5000.00 1000.00      1
 .292663788E+01 .148797700E-02-.568476030E-06 .100970400E-09-.675335090E-14    2
-.922795384E+03 .598054018E+01 .329867700E+01 .140823990E-02-.396322180E-05    3
 .564151480E-08-.244485400E-11-.102090000E+04 .395037200E+01                   4
NO                      O   1N   1          G    330.00   5000.00 1000.00      1
 .324543589E+01 .126913800E-02-.501589000E-06 .916928270E-10-.627541890E-14    2
 .980084032E+04 .641728767E+01 .337654100E+01 .125306300E-02-.330275000E-05    3
 .521781020E-08-.244626190E-11 .981796100E+04 .582959200E+01                   4
N2O                     O   1N   2          G    300.00   5000.00 1000.00      1
 .471897567E+01 .287371290E-02-.119749600E-05 .225055100E-09-.157533690E-13    2
 .816581343E+04-.165723704E+01 .254305700E+01 .949219330E-02-.979277500E-05    3
 .626384410E-08-.190182510E-11 .876510200E+04 .951122400E+01                   4
O2                      O   2               G    301.00   5000.00 2000.00      1
 .369757685E+01 .613519690E-03-.125884200E-06 .177528100E-10-.113643500E-14    2
-.123392966E+04 .318917125E+01 .321293600E+01 .112748610E-02-.575614990E-06    3
 .131387700E-08-.876855390E-12-.100524900E+04 .603473900E+01                   4
